* NGSPICE file created from user_analog_project_wrapper.ext - technology: sky130B

.subckt BGR_TOP_flatten Vfinal IBIAS IBIAS2 VBGR1 m1_43358_7672# VDD VSS
X0 a_24590_15914# a_27122_15596# VSS sky130_fd_pr__res_high_po w=350000u l=1.05e+07u
X1 a_n7471_12835# a_n7413_12809# a_n7213_12835# VSS sky130_fd_pr__nfet_g5v0d10v5 ad=8.7e+12p pd=6.174e+07u as=2.175e+13p ps=1.558e+08u w=1e+07u l=1e+06u
X2 a_25022_3660# a_23222_17650# VDD VDD sky130_fd_pr__pfet_g5v0d10v5 ad=4.64e+12p pd=3.316e+07u as=5.684e+13p ps=4.0476e+08u w=8e+06u l=5e+06u
X3 a_n8827_10164# a_n7792_5538# VSS VSS sky130_fd_pr__nfet_g5v0d10v5 ad=3.045e+13p pd=2.1928e+08u as=5.075e+13p ps=3.6102e+08u w=1e+07u l=1e+06u
X4 VDD a_23112_12310# a_23112_12310# VDD sky130_fd_pr__pfet_g5v0d10v5 ad=0p pd=0u as=1.45e+12p ps=1.058e+07u w=5e+06u l=5e+06u
X5 Vfinal a_38121_13585# VDD VDD sky130_fd_pr__pfet_g5v0d10v5 ad=1.74e+13p pd=1.2348e+08u as=0p ps=0u w=1e+07u l=1e+06u
X6 a_36765_10914# IBIAS Vfinal VSS sky130_fd_pr__nfet_g5v0d10v5 ad=3.045e+13p pd=2.1928e+08u as=1.45e+13p ps=1.058e+08u w=5e+06u l=1e+06u
X7 a_n8827_10164# IBIAS2 VBGR1 VSS sky130_fd_pr__nfet_g5v0d10v5 ad=0p pd=0u as=1.45e+13p ps=1.058e+08u w=5e+06u l=1e+06u
X8 a_36765_10914# IBIAS Vfinal VSS sky130_fd_pr__nfet_g5v0d10v5 ad=0p pd=0u as=0p ps=0u w=5e+06u l=1e+06u
X9 VSS VSS a_13076_4750# sky130_fd_pr__pnp_05v5 area=0p
X10 a_n7326_8799# IBIAS2 a_n7213_12835# VSS sky130_fd_pr__nfet_g5v0d10v5 ad=1.74e+13p pd=1.2522e+08u as=0p ps=0u w=5e+06u l=1e+06u
X11 a_28972_6464# a_28654_12896# VSS sky130_fd_pr__res_high_po w=350000u l=3e+07u
X12 a_23112_12310# a_13086_10350# a_23130_10712# VSS sky130_fd_pr__nfet_g5v0d10v5 ad=1.45e+12p pd=1.058e+07u as=1.015e+13p ps=7.406e+07u w=5e+06u l=5e+06u
X13 a_20830_4720# a_13086_8860# VSS sky130_fd_pr__res_high_po w=350000u l=4.443e+07u
X14 VSS VSS VSS sky130_fd_pr__res_high_po w=350000u l=8e+06u
X15 a_38266_9549# a_37800_6288# VSS VSS sky130_fd_pr__nfet_g5v0d10v5 ad=1.74e+13p pd=1.2522e+08u as=0p ps=0u w=1e+07u l=1e+06u
X16 VSS VSS a_13086_10350# sky130_fd_pr__pnp_05v5 area=0p
X17 a_n7471_12835# a_n6955_12835# VDD VDD sky130_fd_pr__pfet_g5v0d10v5 ad=1.45e+12p pd=1.058e+07u as=0p ps=0u w=5e+06u l=1e+06u
X18 IBIAS2 IBIAS2 a_n7792_5538# VSS sky130_fd_pr__nfet_g5v0d10v5 ad=1.45e+12p pd=1.058e+07u as=4.35e+12p ps=3.116e+07u w=5e+06u l=1e+06u
X19 a_n8827_10164# IBIAS2 VBGR1 VSS sky130_fd_pr__nfet_g5v0d10v5 ad=0p pd=0u as=0p ps=0u w=5e+06u l=1e+06u
X20 a_n7213_12835# IBIAS2 a_n7326_8799# VSS sky130_fd_pr__nfet_g5v0d10v5 ad=0p pd=0u as=0p ps=0u w=5e+06u l=1e+06u
X21 VSS a_n7792_5538# a_n7326_8799# VSS sky130_fd_pr__nfet_g5v0d10v5 ad=0p pd=0u as=0p ps=0u w=1e+07u l=1e+06u
X22 a_n7326_8799# IBIAS2 a_n7213_12835# VSS sky130_fd_pr__nfet_g5v0d10v5 ad=0p pd=0u as=0p ps=0u w=5e+06u l=1e+06u
X23 a_n7213_12835# a_n7413_12809# a_n7471_12835# VSS sky130_fd_pr__nfet_g5v0d10v5 ad=0p pd=0u as=0p ps=0u w=1e+07u l=1e+06u
X24 a_n7213_12835# a_n7413_12809# a_n7471_12835# VSS sky130_fd_pr__nfet_g5v0d10v5 ad=0p pd=0u as=0p ps=0u w=1e+07u l=1e+06u
X25 a_38266_9549# a_37800_6288# VSS VSS sky130_fd_pr__nfet_g5v0d10v5 ad=0p pd=0u as=0p ps=0u w=1e+07u l=1e+06u
X26 VBGR1 a_n7471_12835# VDD VDD sky130_fd_pr__pfet_g5v0d10v5 ad=1.74e+13p pd=1.2348e+08u as=0p ps=0u w=1e+07u l=1e+06u
X27 VBGR1 IBIAS2 a_n8827_10164# VSS sky130_fd_pr__nfet_g5v0d10v5 ad=0p pd=0u as=0p ps=0u w=5e+06u l=1e+06u
X28 a_38379_13585# a_n7413_12809# a_38121_13585# VSS sky130_fd_pr__nfet_g5v0d10v5 ad=2.175e+13p pd=1.558e+08u as=8.7e+12p ps=6.174e+07u w=1e+07u l=1e+06u
X29 Vfinal IBIAS a_36765_10914# VSS sky130_fd_pr__nfet_g5v0d10v5 ad=0p pd=0u as=0p ps=0u w=5e+06u l=1e+06u
X30 a_14942_8247# a_12982_11767# a_13040_11670# VSS sky130_fd_pr__nfet_g5v0d10v5 ad=4.35e+12p pd=3.058e+07u as=4.35e+12p ps=3.058e+07u w=1.5e+07u l=5e+06u
X31 VDD a_23222_17650# a_25022_3660# VDD sky130_fd_pr__pfet_g5v0d10v5 ad=0p pd=0u as=0p ps=0u w=8e+06u l=5e+06u
X32 a_n7326_8799# IBIAS2 a_n7213_12835# VSS sky130_fd_pr__nfet_g5v0d10v5 ad=0p pd=0u as=0p ps=0u w=5e+06u l=1e+06u
X33 a_n7413_12809# a_13086_10350# a_18524_8221# VDD sky130_fd_pr__pfet_g5v0d10v5 ad=8.7e+12p pd=6.116e+07u as=8.7e+12p ps=6.116e+07u w=1.5e+07u l=5e+06u
X34 VSS VSS VSS sky130_fd_pr__res_high_po w=350000u l=3.2e+06u
X35 VDD a_n7471_12835# VBGR1 VDD sky130_fd_pr__pfet_g5v0d10v5 ad=0p pd=0u as=0p ps=0u w=1e+07u l=1e+06u
X36 a_n6955_12835# VBGR1 a_n7213_12835# VSS sky130_fd_pr__nfet_g5v0d10v5 ad=8.7e+12p pd=6.174e+07u as=0p ps=0u w=1e+07u l=1e+06u
X37 VSS a_37800_6288# a_36765_10914# VSS sky130_fd_pr__nfet_g5v0d10v5 ad=0p pd=0u as=0p ps=0u w=1e+07u l=1e+06u
X38 a_n6955_12835# VBGR1 a_n7213_12835# VSS sky130_fd_pr__nfet_g5v0d10v5 ad=0p pd=0u as=0p ps=0u w=1e+07u l=1e+06u
X39 VSS VSS VSS sky130_fd_pr__res_high_po w=350000u l=8e+06u
X40 a_n8827_10164# IBIAS2 VBGR1 VSS sky130_fd_pr__nfet_g5v0d10v5 ad=0p pd=0u as=0p ps=0u w=5e+06u l=1e+06u
X41 a_38379_13585# IBIAS a_38266_9549# VSS sky130_fd_pr__nfet_g5v0d10v5 ad=0p pd=0u as=0p ps=0u w=5e+06u l=1e+06u
X42 a_23130_10712# VDD VSS VSS sky130_fd_pr__nfet_g5v0d10v5 ad=0p pd=0u as=0p ps=0u w=5e+06u l=5e+06u
X43 VSS a_37800_6288# a_36765_10914# VSS sky130_fd_pr__nfet_g5v0d10v5 ad=0p pd=0u as=0p ps=0u w=1e+07u l=1e+06u
X44 a_38379_13585# a_n7413_12809# a_38121_13585# VSS sky130_fd_pr__nfet_g5v0d10v5 ad=0p pd=0u as=0p ps=0u w=1e+07u l=1e+06u
X45 a_38266_9549# IBIAS a_38379_13585# VSS sky130_fd_pr__nfet_g5v0d10v5 ad=0p pd=0u as=0p ps=0u w=5e+06u l=1e+06u
X46 a_36765_10914# a_37800_6288# VSS VSS sky130_fd_pr__nfet_g5v0d10v5 ad=0p pd=0u as=0p ps=0u w=1e+07u l=1e+06u
X47 VDD a_38637_13585# a_38637_13585# VDD sky130_fd_pr__pfet_g5v0d10v5 ad=0p pd=0u as=1.45e+12p ps=1.058e+07u w=5e+06u l=1e+06u
X48 VBGR1 IBIAS2 a_n8827_10164# VSS sky130_fd_pr__nfet_g5v0d10v5 ad=0p pd=0u as=0p ps=0u w=5e+06u l=1e+06u
X49 a_36765_10914# IBIAS Vfinal VSS sky130_fd_pr__nfet_g5v0d10v5 ad=0p pd=0u as=0p ps=0u w=5e+06u l=1e+06u
X50 a_23130_10712# a_25022_3660# a_25110_4660# VSS sky130_fd_pr__nfet_g5v0d10v5 ad=0p pd=0u as=2.9e+12p ps=2.116e+07u w=5e+06u l=5e+06u
X51 VSS VSS a_13076_4750# sky130_fd_pr__pnp_05v5 area=0p
X52 a_n3880_12441# a_n7471_12835# VSS sky130_fd_pr__res_high_po w=350000u l=8e+06u
X53 VSS VSS VSS sky130_fd_pr__res_high_po w=350000u l=3e+07u
X54 VSS VSS VSS sky130_fd_pr__res_high_po w=350000u l=4.443e+07u
X55 VSS VSS VSS sky130_fd_pr__res_high_po w=350000u l=3e+07u
X56 VSS VSS VSS sky130_fd_pr__res_high_po w=350000u l=3.2e+06u
X57 VBGR1 a_n7471_12835# VDD VDD sky130_fd_pr__pfet_g5v0d10v5 ad=0p pd=0u as=0p ps=0u w=1e+07u l=1e+06u
X58 VBGR1 IBIAS2 a_n8827_10164# VSS sky130_fd_pr__nfet_g5v0d10v5 ad=0p pd=0u as=0p ps=0u w=5e+06u l=1e+06u
X59 Vfinal IBIAS a_36765_10914# VSS sky130_fd_pr__nfet_g5v0d10v5 ad=0p pd=0u as=0p ps=0u w=5e+06u l=1e+06u
X60 a_n8827_10164# a_n7792_5538# VSS VSS sky130_fd_pr__nfet_g5v0d10v5 ad=0p pd=0u as=0p ps=0u w=1e+07u l=1e+06u
X61 Vfinal IBIAS a_36765_10914# VSS sky130_fd_pr__nfet_g5v0d10v5 ad=0p pd=0u as=0p ps=0u w=5e+06u l=1e+06u
X62 a_36765_10914# IBIAS Vfinal VSS sky130_fd_pr__nfet_g5v0d10v5 ad=0p pd=0u as=0p ps=0u w=5e+06u l=1e+06u
X63 VSS VDD a_23130_10712# VSS sky130_fd_pr__nfet_g5v0d10v5 ad=0p pd=0u as=0p ps=0u w=5e+06u l=5e+06u
X64 VSS a_n7792_5538# a_n8827_10164# VSS sky130_fd_pr__nfet_g5v0d10v5 ad=0p pd=0u as=0p ps=0u w=1e+07u l=1e+06u
X65 VSS VSS VSS sky130_fd_pr__res_high_po w=350000u l=4.7e+07u
X66 VSS a_n7792_5538# a_n7792_5538# VSS sky130_fd_pr__nfet_g5v0d10v5 ad=0p pd=0u as=0p ps=0u w=1e+07u l=1e+06u
X67 a_36765_10914# IBIAS Vfinal VSS sky130_fd_pr__nfet_g5v0d10v5 ad=0p pd=0u as=0p ps=0u w=5e+06u l=1e+06u
X68 a_n7213_12835# IBIAS2 a_n7326_8799# VSS sky130_fd_pr__nfet_g5v0d10v5 ad=0p pd=0u as=0p ps=0u w=5e+06u l=1e+06u
X69 a_n7326_8799# a_n7792_5538# VSS VSS sky130_fd_pr__nfet_g5v0d10v5 ad=0p pd=0u as=0p ps=0u w=1e+07u l=1e+06u
X70 a_36765_10914# IBIAS Vfinal VSS sky130_fd_pr__nfet_g5v0d10v5 ad=0p pd=0u as=0p ps=0u w=5e+06u l=1e+06u
X71 a_25110_4660# a_25022_3660# a_23130_10712# VSS sky130_fd_pr__nfet_g5v0d10v5 ad=0p pd=0u as=0p ps=0u w=5e+06u l=5e+06u
X72 a_n8827_10164# a_n7792_5538# VSS VSS sky130_fd_pr__nfet_g5v0d10v5 ad=0p pd=0u as=0p ps=0u w=1e+07u l=1e+06u
X73 a_14942_8247# a_13086_10350# a_16000_8247# VDD sky130_fd_pr__pfet_g5v0d10v5 ad=8.7e+12p pd=6.116e+07u as=8.7e+12p ps=6.116e+07u w=1.5e+07u l=5e+06u
X74 a_36765_10914# IBIAS Vfinal VSS sky130_fd_pr__nfet_g5v0d10v5 ad=0p pd=0u as=0p ps=0u w=5e+06u l=1e+06u
X75 VDD a_n7471_12835# VBGR1 VDD sky130_fd_pr__pfet_g5v0d10v5 ad=0p pd=0u as=0p ps=0u w=1e+07u l=1e+06u
X76 a_38637_13585# a_29282_13758# a_38379_13585# VSS sky130_fd_pr__nfet_g5v0d10v5 ad=8.7e+12p pd=6.174e+07u as=0p ps=0u w=1e+07u l=1e+06u
X77 VSS a_n7792_5538# a_n8827_10164# VSS sky130_fd_pr__nfet_g5v0d10v5 ad=0p pd=0u as=0p ps=0u w=1e+07u l=1e+06u
X78 Vfinal IBIAS a_36765_10914# VSS sky130_fd_pr__nfet_g5v0d10v5 ad=0p pd=0u as=0p ps=0u w=5e+06u l=1e+06u
X79 VSS a_37800_6288# a_38266_9549# VSS sky130_fd_pr__nfet_g5v0d10v5 ad=0p pd=0u as=0p ps=0u w=1e+07u l=1e+06u
X80 VDD a_23112_12310# a_24769_10130# VDD sky130_fd_pr__pfet_g5v0d10v5 ad=0p pd=0u as=2.9e+12p ps=2.116e+07u w=5e+06u l=5e+06u
X81 VDD a_n6955_12835# a_n6955_12835# VDD sky130_fd_pr__pfet_g5v0d10v5 ad=0p pd=0u as=1.45e+12p ps=1.058e+07u w=5e+06u l=1e+06u
X82 a_14040_11767# a_13040_11670# a_12982_11767# VDD sky130_fd_pr__pfet_g5v0d10v5 ad=8.7e+12p pd=6.116e+07u as=8.7e+12p ps=6.116e+07u w=1.5e+07u l=5e+06u
X83 VDD a_14942_8247# a_16000_8247# VDD sky130_fd_pr__pfet_g5v0d10v5 ad=0p pd=0u as=0p ps=0u w=1.5e+07u l=5e+06u
X84 a_n7213_12835# IBIAS2 a_n7326_8799# VSS sky130_fd_pr__nfet_g5v0d10v5 ad=0p pd=0u as=0p ps=0u w=5e+06u l=1e+06u
X85 a_n7213_12835# IBIAS2 a_n7326_8799# VSS sky130_fd_pr__nfet_g5v0d10v5 ad=0p pd=0u as=0p ps=0u w=5e+06u l=1e+06u
X86 a_38379_13585# a_n7413_12809# a_38121_13585# VSS sky130_fd_pr__nfet_g5v0d10v5 ad=0p pd=0u as=0p ps=0u w=1e+07u l=1e+06u
X87 a_n8827_10164# IBIAS2 VBGR1 VSS sky130_fd_pr__nfet_g5v0d10v5 ad=0p pd=0u as=0p ps=0u w=5e+06u l=1e+06u
X88 VSS a_37800_6288# a_37800_6288# VSS sky130_fd_pr__nfet_g5v0d10v5 ad=0p pd=0u as=4.35e+12p ps=3.116e+07u w=1e+07u l=1e+06u
X89 VSS a_37800_6288# a_36765_10914# VSS sky130_fd_pr__nfet_g5v0d10v5 ad=0p pd=0u as=0p ps=0u w=1e+07u l=1e+06u
X90 a_n8827_10164# IBIAS2 VBGR1 VSS sky130_fd_pr__nfet_g5v0d10v5 ad=0p pd=0u as=0p ps=0u w=5e+06u l=1e+06u
X91 a_36765_10914# a_37800_6288# VSS VSS sky130_fd_pr__nfet_g5v0d10v5 ad=0p pd=0u as=0p ps=0u w=1e+07u l=1e+06u
X92 a_24769_10130# a_23112_12310# VDD VDD sky130_fd_pr__pfet_g5v0d10v5 ad=0p pd=0u as=0p ps=0u w=5e+06u l=5e+06u
X93 a_38266_9549# IBIAS a_38379_13585# VSS sky130_fd_pr__nfet_g5v0d10v5 ad=0p pd=0u as=0p ps=0u w=5e+06u l=1e+06u
X94 a_23414_14868# a_27122_15596# VSS sky130_fd_pr__res_high_po w=350000u l=1.05e+07u
X95 a_41712_13191# a_38121_13585# VSS sky130_fd_pr__res_high_po w=350000u l=8e+06u
X96 VBGR1 IBIAS2 a_n8827_10164# VSS sky130_fd_pr__nfet_g5v0d10v5 ad=0p pd=0u as=0p ps=0u w=5e+06u l=1e+06u
X97 VBGR1 IBIAS2 a_n8827_10164# VSS sky130_fd_pr__nfet_g5v0d10v5 ad=0p pd=0u as=0p ps=0u w=5e+06u l=1e+06u
X98 a_38379_13585# IBIAS a_38266_9549# VSS sky130_fd_pr__nfet_g5v0d10v5 ad=0p pd=0u as=0p ps=0u w=5e+06u l=1e+06u
X99 Vfinal IBIAS a_36765_10914# VSS sky130_fd_pr__nfet_g5v0d10v5 ad=0p pd=0u as=0p ps=0u w=5e+06u l=1e+06u
X100 a_25110_4660# a_24769_10130# VSS sky130_fd_pr__res_high_po w=350000u l=4.7e+07u
X101 VSS VSS a_13076_4750# sky130_fd_pr__pnp_05v5 area=0p
X102 a_38266_9549# IBIAS a_38379_13585# VSS sky130_fd_pr__nfet_g5v0d10v5 ad=0p pd=0u as=0p ps=0u w=5e+06u l=1e+06u
X103 a_24769_10130# a_28018_12896# VSS sky130_fd_pr__res_high_po w=350000u l=3e+07u
X104 a_38637_13585# a_29282_13758# a_38379_13585# VSS sky130_fd_pr__nfet_g5v0d10v5 ad=0p pd=0u as=0p ps=0u w=1e+07u l=1e+06u
X105 VBGR1 a_n7471_12835# VDD VDD sky130_fd_pr__pfet_g5v0d10v5 ad=0p pd=0u as=0p ps=0u w=1e+07u l=1e+06u
X106 VDD a_14942_8247# a_14040_11767# VDD sky130_fd_pr__pfet_g5v0d10v5 ad=0p pd=0u as=0p ps=0u w=1.5e+07u l=5e+06u
X107 a_41712_13191# Vfinal sky130_fd_pr__cap_mim_m3_1 l=2.4e+07u w=2.4e+07u
X108 a_n8827_10164# IBIAS2 VBGR1 VSS sky130_fd_pr__nfet_g5v0d10v5 ad=0p pd=0u as=0p ps=0u w=5e+06u l=1e+06u
X109 a_n7326_8799# a_n7792_5538# VSS VSS sky130_fd_pr__nfet_g5v0d10v5 ad=0p pd=0u as=0p ps=0u w=1e+07u l=1e+06u
X110 a_18524_8221# a_13086_10350# a_n7413_12809# VDD sky130_fd_pr__pfet_g5v0d10v5 ad=0p pd=0u as=0p ps=0u w=1.5e+07u l=5e+06u
X111 a_n8827_10164# IBIAS2 VBGR1 VSS sky130_fd_pr__nfet_g5v0d10v5 ad=0p pd=0u as=0p ps=0u w=5e+06u l=1e+06u
X112 Vfinal a_38121_13585# VDD VDD sky130_fd_pr__pfet_g5v0d10v5 ad=0p pd=0u as=0p ps=0u w=1e+07u l=1e+06u
X113 a_n7326_8799# IBIAS2 a_n7213_12835# VSS sky130_fd_pr__nfet_g5v0d10v5 ad=0p pd=0u as=0p ps=0u w=5e+06u l=1e+06u
X114 VDD a_n7471_12835# VBGR1 VDD sky130_fd_pr__pfet_g5v0d10v5 ad=0p pd=0u as=0p ps=0u w=1e+07u l=1e+06u
X115 a_n8827_10164# IBIAS2 VBGR1 VSS sky130_fd_pr__nfet_g5v0d10v5 ad=0p pd=0u as=0p ps=0u w=5e+06u l=1e+06u
X116 a_24769_10130# a_23112_12310# VDD VDD sky130_fd_pr__pfet_g5v0d10v5 ad=0p pd=0u as=0p ps=0u w=5e+06u l=5e+06u
X117 VDD a_n7471_12835# VBGR1 VDD sky130_fd_pr__pfet_g5v0d10v5 ad=0p pd=0u as=0p ps=0u w=1e+07u l=1e+06u
X118 VBGR1 IBIAS2 a_n8827_10164# VSS sky130_fd_pr__nfet_g5v0d10v5 ad=0p pd=0u as=0p ps=0u w=5e+06u l=1e+06u
X119 a_28972_6464# a_29282_13758# VSS sky130_fd_pr__res_high_po w=350000u l=3e+07u
X120 VSS a_37800_6288# a_36765_10914# VSS sky130_fd_pr__nfet_g5v0d10v5 ad=0p pd=0u as=0p ps=0u w=1e+07u l=1e+06u
X121 a_38121_13585# a_n7413_12809# a_38379_13585# VSS sky130_fd_pr__nfet_g5v0d10v5 ad=0p pd=0u as=0p ps=0u w=1e+07u l=1e+06u
X122 a_25022_3660# a_23222_17650# VDD VDD sky130_fd_pr__pfet_g5v0d10v5 ad=0p pd=0u as=0p ps=0u w=8e+06u l=5e+06u
X123 VDD a_38121_13585# Vfinal VDD sky130_fd_pr__pfet_g5v0d10v5 ad=0p pd=0u as=0p ps=0u w=1e+07u l=1e+06u
X124 VDD a_14942_8247# a_18524_8221# VDD sky130_fd_pr__pfet_g5v0d10v5 ad=0p pd=0u as=0p ps=0u w=1.5e+07u l=5e+06u
X125 a_n7326_8799# IBIAS2 a_n7213_12835# VSS sky130_fd_pr__nfet_g5v0d10v5 ad=0p pd=0u as=0p ps=0u w=5e+06u l=1e+06u
X126 Vfinal IBIAS a_36765_10914# VSS sky130_fd_pr__nfet_g5v0d10v5 ad=0p pd=0u as=0p ps=0u w=5e+06u l=1e+06u
X127 VBGR1 a_n7471_12835# VDD VDD sky130_fd_pr__pfet_g5v0d10v5 ad=0p pd=0u as=0p ps=0u w=1e+07u l=1e+06u
X128 VSS VSS VSS sky130_fd_pr__res_high_po w=350000u l=4.443e+07u
X129 VSS VSS a_13076_4750# sky130_fd_pr__pnp_05v5 area=0p
X130 VBGR1 IBIAS2 a_n8827_10164# VSS sky130_fd_pr__nfet_g5v0d10v5 ad=0p pd=0u as=0p ps=0u w=5e+06u l=1e+06u
X131 VSS VSS VSS sky130_fd_pr__res_high_po w=350000u l=1.05e+07u
X132 a_n7213_12835# VBGR1 a_n6955_12835# VSS sky130_fd_pr__nfet_g5v0d10v5 ad=0p pd=0u as=0p ps=0u w=1e+07u l=1e+06u
X133 a_38379_13585# a_29282_13758# a_38637_13585# VSS sky130_fd_pr__nfet_g5v0d10v5 ad=0p pd=0u as=0p ps=0u w=1e+07u l=1e+06u
X134 VSS VDD a_23130_10712# VSS sky130_fd_pr__nfet_g5v0d10v5 ad=0p pd=0u as=0p ps=0u w=5e+06u l=5e+06u
X135 a_38379_13585# a_29282_13758# a_38637_13585# VSS sky130_fd_pr__nfet_g5v0d10v5 ad=0p pd=0u as=0p ps=0u w=1e+07u l=1e+06u
X136 a_n3880_12441# VBGR1 sky130_fd_pr__cap_mim_m3_1 l=2.4e+07u w=2.4e+07u
X137 VSS VSS a_13076_4750# sky130_fd_pr__pnp_05v5 area=0p
X138 a_n7471_12835# a_n7413_12809# a_n7213_12835# VSS sky130_fd_pr__nfet_g5v0d10v5 ad=0p pd=0u as=0p ps=0u w=1e+07u l=1e+06u
X139 a_25110_4660# a_25022_3660# a_23130_10712# VSS sky130_fd_pr__nfet_g5v0d10v5 ad=0p pd=0u as=0p ps=0u w=5e+06u l=5e+06u
X140 a_38637_13585# a_29282_13758# a_38379_13585# VSS sky130_fd_pr__nfet_g5v0d10v5 ad=0p pd=0u as=0p ps=0u w=1e+07u l=1e+06u
X141 a_23222_17650# a_23222_17650# VDD VDD sky130_fd_pr__pfet_g5v0d10v5 ad=1.45e+12p pd=1.058e+07u as=0p ps=0u w=5e+06u l=5e+06u
X142 Vfinal a_38121_13585# VDD VDD sky130_fd_pr__pfet_g5v0d10v5 ad=0p pd=0u as=0p ps=0u w=1e+07u l=1e+06u
X143 VSS VSS VSS sky130_fd_pr__res_high_po w=350000u l=1.05e+07u
X144 a_28336_6464# a_28018_12896# VSS sky130_fd_pr__res_high_po w=350000u l=3e+07u
X145 a_38379_13585# IBIAS a_38266_9549# VSS sky130_fd_pr__nfet_g5v0d10v5 ad=0p pd=0u as=0p ps=0u w=5e+06u l=1e+06u
X146 a_23222_17650# a_n7413_12809# VSS VSS sky130_fd_pr__nfet_g5v0d10v5 ad=1.45e+12p pd=1.058e+07u as=0p ps=0u w=5e+06u l=5e+06u
X147 a_n7213_12835# a_n7413_12809# a_n7471_12835# VSS sky130_fd_pr__nfet_g5v0d10v5 ad=0p pd=0u as=0p ps=0u w=1e+07u l=1e+06u
X148 a_38266_9549# a_37800_6288# VSS VSS sky130_fd_pr__nfet_g5v0d10v5 ad=0p pd=0u as=0p ps=0u w=1e+07u l=1e+06u
X149 VDD a_38121_13585# Vfinal VDD sky130_fd_pr__pfet_g5v0d10v5 ad=0p pd=0u as=0p ps=0u w=1e+07u l=1e+06u
X150 VDD a_38121_13585# Vfinal VDD sky130_fd_pr__pfet_g5v0d10v5 ad=0p pd=0u as=0p ps=0u w=1e+07u l=1e+06u
X151 a_12982_11767# a_13040_11670# a_14040_11767# VDD sky130_fd_pr__pfet_g5v0d10v5 ad=0p pd=0u as=0p ps=0u w=1.5e+07u l=5e+06u
X152 VDD a_23112_12310# a_24769_10130# VDD sky130_fd_pr__pfet_g5v0d10v5 ad=0p pd=0u as=0p ps=0u w=5e+06u l=5e+06u
X153 a_38121_13585# a_38637_13585# VDD VDD sky130_fd_pr__pfet_g5v0d10v5 ad=1.45e+12p pd=1.058e+07u as=0p ps=0u w=5e+06u l=1e+06u
X154 VBGR1 IBIAS2 a_n8827_10164# VSS sky130_fd_pr__nfet_g5v0d10v5 ad=0p pd=0u as=0p ps=0u w=5e+06u l=1e+06u
X155 a_n8827_10164# a_n7792_5538# VSS VSS sky130_fd_pr__nfet_g5v0d10v5 ad=0p pd=0u as=0p ps=0u w=1e+07u l=1e+06u
X156 Vfinal IBIAS a_36765_10914# VSS sky130_fd_pr__nfet_g5v0d10v5 ad=0p pd=0u as=0p ps=0u w=5e+06u l=1e+06u
X157 a_n8827_10164# IBIAS2 VBGR1 VSS sky130_fd_pr__nfet_g5v0d10v5 ad=0p pd=0u as=0p ps=0u w=5e+06u l=1e+06u
X158 Vfinal IBIAS a_36765_10914# VSS sky130_fd_pr__nfet_g5v0d10v5 ad=0p pd=0u as=0p ps=0u w=5e+06u l=1e+06u
X159 VSS VSS a_23414_14868# sky130_fd_pr__pnp_05v5 area=0p
X160 VSS a_n7792_5538# a_n8827_10164# VSS sky130_fd_pr__nfet_g5v0d10v5 ad=0p pd=0u as=0p ps=0u w=1e+07u l=1e+06u
X161 VSS a_37800_6288# a_36765_10914# VSS sky130_fd_pr__nfet_g5v0d10v5 ad=0p pd=0u as=0p ps=0u w=1e+07u l=1e+06u
X162 a_20830_4720# a_n7413_12809# VSS sky130_fd_pr__res_high_po w=350000u l=4.443e+07u
X163 VSS a_n7792_5538# a_n8827_10164# VSS sky130_fd_pr__nfet_g5v0d10v5 ad=0p pd=0u as=0p ps=0u w=1e+07u l=1e+06u
X164 VDD a_n7471_12835# VBGR1 VDD sky130_fd_pr__pfet_g5v0d10v5 ad=0p pd=0u as=0p ps=0u w=1e+07u l=1e+06u
X165 a_n6955_12835# VBGR1 a_n7213_12835# VSS sky130_fd_pr__nfet_g5v0d10v5 ad=0p pd=0u as=0p ps=0u w=1e+07u l=1e+06u
X166 a_n7326_8799# a_n7792_5538# VSS VSS sky130_fd_pr__nfet_g5v0d10v5 ad=0p pd=0u as=0p ps=0u w=1e+07u l=1e+06u
X167 a_n8827_10164# a_n7792_5538# VSS VSS sky130_fd_pr__nfet_g5v0d10v5 ad=0p pd=0u as=0p ps=0u w=1e+07u l=1e+06u
X168 a_36765_10914# a_37800_6288# VSS VSS sky130_fd_pr__nfet_g5v0d10v5 ad=0p pd=0u as=0p ps=0u w=1e+07u l=1e+06u
X169 a_n8827_10164# IBIAS2 VBGR1 VSS sky130_fd_pr__nfet_g5v0d10v5 ad=0p pd=0u as=0p ps=0u w=5e+06u l=1e+06u
X170 a_36765_10914# IBIAS Vfinal VSS sky130_fd_pr__nfet_g5v0d10v5 ad=0p pd=0u as=0p ps=0u w=5e+06u l=1e+06u
X171 VBGR1 IBIAS2 a_n8827_10164# VSS sky130_fd_pr__nfet_g5v0d10v5 ad=0p pd=0u as=0p ps=0u w=5e+06u l=1e+06u
X172 a_36765_10914# IBIAS Vfinal VSS sky130_fd_pr__nfet_g5v0d10v5 ad=0p pd=0u as=0p ps=0u w=5e+06u l=1e+06u
X173 a_24590_15914# a_25022_3660# VSS sky130_fd_pr__res_high_po w=350000u l=1.05e+07u
X174 VSS a_n7792_5538# a_n8827_10164# VSS sky130_fd_pr__nfet_g5v0d10v5 ad=0p pd=0u as=0p ps=0u w=1e+07u l=1e+06u
X175 VSS a_n7792_5538# a_n7326_8799# VSS sky130_fd_pr__nfet_g5v0d10v5 ad=0p pd=0u as=0p ps=0u w=1e+07u l=1e+06u
X176 a_23130_10712# VDD VSS VSS sky130_fd_pr__nfet_g5v0d10v5 ad=0p pd=0u as=0p ps=0u w=5e+06u l=5e+06u
X177 a_38266_9549# IBIAS a_38379_13585# VSS sky130_fd_pr__nfet_g5v0d10v5 ad=0p pd=0u as=0p ps=0u w=5e+06u l=1e+06u
X178 VBGR1 a_n7471_12835# VDD VDD sky130_fd_pr__pfet_g5v0d10v5 ad=0p pd=0u as=0p ps=0u w=1e+07u l=1e+06u
X179 a_36765_10914# a_37800_6288# VSS VSS sky130_fd_pr__nfet_g5v0d10v5 ad=0p pd=0u as=0p ps=0u w=1e+07u l=1e+06u
X180 a_38379_13585# IBIAS a_38266_9549# VSS sky130_fd_pr__nfet_g5v0d10v5 ad=0p pd=0u as=0p ps=0u w=5e+06u l=1e+06u
X181 a_28336_6464# a_28654_12896# VSS sky130_fd_pr__res_high_po w=350000u l=3e+07u
X182 a_n7213_12835# IBIAS2 a_n7326_8799# VSS sky130_fd_pr__nfet_g5v0d10v5 ad=0p pd=0u as=0p ps=0u w=5e+06u l=1e+06u
X183 Vfinal IBIAS a_36765_10914# VSS sky130_fd_pr__nfet_g5v0d10v5 ad=0p pd=0u as=0p ps=0u w=5e+06u l=1e+06u
X184 a_23130_10712# a_25022_3660# a_25110_4660# VSS sky130_fd_pr__nfet_g5v0d10v5 ad=0p pd=0u as=0p ps=0u w=5e+06u l=5e+06u
X185 VBGR1 IBIAS2 a_n8827_10164# VSS sky130_fd_pr__nfet_g5v0d10v5 ad=0p pd=0u as=0p ps=0u w=5e+06u l=1e+06u
X186 Vfinal a_38121_13585# VDD VDD sky130_fd_pr__pfet_g5v0d10v5 ad=0p pd=0u as=0p ps=0u w=1e+07u l=1e+06u
X187 a_38266_9549# IBIAS a_38379_13585# VSS sky130_fd_pr__nfet_g5v0d10v5 ad=0p pd=0u as=0p ps=0u w=5e+06u l=1e+06u
X188 VSS VSS a_13086_8860# sky130_fd_pr__pnp_05v5 area=0p
X189 a_36765_10914# a_37800_6288# VSS VSS sky130_fd_pr__nfet_g5v0d10v5 ad=0p pd=0u as=0p ps=0u w=1e+07u l=1e+06u
X190 IBIAS IBIAS a_37800_6288# VSS sky130_fd_pr__nfet_g5v0d10v5 ad=1.45e+12p pd=1.058e+07u as=0p ps=0u w=5e+06u l=1e+06u
X191 a_38121_13585# a_n7413_12809# a_38379_13585# VSS sky130_fd_pr__nfet_g5v0d10v5 ad=0p pd=0u as=0p ps=0u w=1e+07u l=1e+06u
X192 Vfinal a_38121_13585# VDD VDD sky130_fd_pr__pfet_g5v0d10v5 ad=0p pd=0u as=0p ps=0u w=1e+07u l=1e+06u
X193 a_12982_11767# a_12982_11767# a_13086_10350# VSS sky130_fd_pr__nfet_g5v0d10v5 ad=4.35e+12p pd=3.058e+07u as=4.35e+12p ps=3.058e+07u w=1.5e+07u l=5e+06u
X194 VSS a_37800_6288# a_38266_9549# VSS sky130_fd_pr__nfet_g5v0d10v5 ad=0p pd=0u as=0p ps=0u w=1e+07u l=1e+06u
X195 a_16000_8247# a_13086_10350# a_14942_8247# VDD sky130_fd_pr__pfet_g5v0d10v5 ad=0p pd=0u as=0p ps=0u w=1.5e+07u l=5e+06u
X196 a_36765_10914# IBIAS Vfinal VSS sky130_fd_pr__nfet_g5v0d10v5 ad=0p pd=0u as=0p ps=0u w=5e+06u l=1e+06u
X197 a_n7213_12835# VBGR1 a_n6955_12835# VSS sky130_fd_pr__nfet_g5v0d10v5 ad=0p pd=0u as=0p ps=0u w=1e+07u l=1e+06u
X198 a_29282_13758# Vfinal VSS sky130_fd_pr__res_high_po w=350000u l=3.2e+06u
X199 VDD a_38121_13585# Vfinal VDD sky130_fd_pr__pfet_g5v0d10v5 ad=0p pd=0u as=0p ps=0u w=1e+07u l=1e+06u
X200 a_38379_13585# IBIAS a_38266_9549# VSS sky130_fd_pr__nfet_g5v0d10v5 ad=0p pd=0u as=0p ps=0u w=5e+06u l=1e+06u
X201 a_13076_4750# a_13040_11670# VSS sky130_fd_pr__res_high_po w=350000u l=8e+06u
X202 VDD a_38121_13585# Vfinal VDD sky130_fd_pr__pfet_g5v0d10v5 ad=0p pd=0u as=0p ps=0u w=1e+07u l=1e+06u
X203 Vfinal IBIAS a_36765_10914# VSS sky130_fd_pr__nfet_g5v0d10v5 ad=0p pd=0u as=0p ps=0u w=5e+06u l=1e+06u
X204 VSS VSS VSS sky130_fd_pr__res_high_po w=350000u l=4.7e+07u
.ends

.subckt user_analog_project_wrapper gpio_analog[0] gpio_analog[10] gpio_analog[11]
+ gpio_analog[12] gpio_analog[13] gpio_analog[14] gpio_analog[15] gpio_analog[16]
+ gpio_analog[17] gpio_analog[1] gpio_analog[2] gpio_analog[3] gpio_analog[4] gpio_analog[5]
+ gpio_analog[6] gpio_analog[7] gpio_analog[8] gpio_analog[9] gpio_noesd[0] gpio_noesd[10]
+ gpio_noesd[11] gpio_noesd[12] gpio_noesd[13] gpio_noesd[14] gpio_noesd[15] gpio_noesd[16]
+ gpio_noesd[17] gpio_noesd[1] gpio_noesd[2] gpio_noesd[3] gpio_noesd[4] gpio_noesd[5]
+ gpio_noesd[6] gpio_noesd[7] gpio_noesd[8] gpio_noesd[9] io_analog[0] io_analog[10]
+ io_analog[1] io_analog[2] io_analog[3] io_analog[7] io_analog[8] io_analog[9] io_analog[4]
+ io_analog[5] io_analog[6] io_clamp_high[0] io_clamp_high[1] io_clamp_high[2] io_clamp_low[0]
+ io_clamp_low[1] io_clamp_low[2] io_in[0] io_in[10] io_in[11] io_in[12] io_in[13]
+ io_in[14] io_in[15] io_in[16] io_in[17] io_in[18] io_in[19] io_in[1] io_in[20] io_in[21]
+ io_in[22] io_in[23] io_in[24] io_in[25] io_in[26] io_in[2] io_in[3] io_in[4] io_in[5]
+ io_in[6] io_in[7] io_in[8] io_in[9] io_in_3v3[0] io_in_3v3[10] io_in_3v3[11] io_in_3v3[12]
+ io_in_3v3[13] io_in_3v3[14] io_in_3v3[15] io_in_3v3[16] io_in_3v3[17] io_in_3v3[18]
+ io_in_3v3[19] io_in_3v3[1] io_in_3v3[20] io_in_3v3[21] io_in_3v3[22] io_in_3v3[23]
+ io_in_3v3[24] io_in_3v3[25] io_in_3v3[26] io_in_3v3[2] io_in_3v3[3] io_in_3v3[4]
+ io_in_3v3[5] io_in_3v3[6] io_in_3v3[7] io_in_3v3[8] io_in_3v3[9] io_oeb[0] io_oeb[10]
+ io_oeb[11] io_oeb[12] io_oeb[13] io_oeb[14] io_oeb[15] io_oeb[16] io_oeb[17] io_oeb[18]
+ io_oeb[19] io_oeb[1] io_oeb[20] io_oeb[21] io_oeb[22] io_oeb[23] io_oeb[24] io_oeb[25]
+ io_oeb[26] io_oeb[2] io_oeb[3] io_oeb[4] io_oeb[5] io_oeb[6] io_oeb[7] io_oeb[8]
+ io_oeb[9] io_out[0] io_out[10] io_out[11] io_out[12] io_out[13] io_out[14] io_out[15]
+ io_out[16] io_out[17] io_out[18] io_out[19] io_out[1] io_out[20] io_out[21] io_out[22]
+ io_out[23] io_out[24] io_out[25] io_out[26] io_out[2] io_out[3] io_out[4] io_out[5]
+ io_out[6] io_out[7] io_out[8] io_out[9] la_data_in[0] la_data_in[100] la_data_in[101]
+ la_data_in[102] la_data_in[103] la_data_in[104] la_data_in[105] la_data_in[106]
+ la_data_in[107] la_data_in[108] la_data_in[109] la_data_in[10] la_data_in[110] la_data_in[111]
+ la_data_in[112] la_data_in[113] la_data_in[114] la_data_in[115] la_data_in[116]
+ la_data_in[117] la_data_in[118] la_data_in[119] la_data_in[11] la_data_in[120] la_data_in[121]
+ la_data_in[122] la_data_in[123] la_data_in[124] la_data_in[125] la_data_in[126]
+ la_data_in[127] la_data_in[12] la_data_in[13] la_data_in[14] la_data_in[15] la_data_in[16]
+ la_data_in[17] la_data_in[18] la_data_in[19] la_data_in[1] la_data_in[20] la_data_in[21]
+ la_data_in[22] la_data_in[23] la_data_in[24] la_data_in[25] la_data_in[26] la_data_in[27]
+ la_data_in[28] la_data_in[29] la_data_in[2] la_data_in[30] la_data_in[31] la_data_in[32]
+ la_data_in[33] la_data_in[34] la_data_in[35] la_data_in[36] la_data_in[37] la_data_in[38]
+ la_data_in[39] la_data_in[3] la_data_in[40] la_data_in[41] la_data_in[42] la_data_in[43]
+ la_data_in[44] la_data_in[45] la_data_in[46] la_data_in[47] la_data_in[48] la_data_in[49]
+ la_data_in[4] la_data_in[50] la_data_in[51] la_data_in[52] la_data_in[53] la_data_in[54]
+ la_data_in[55] la_data_in[56] la_data_in[57] la_data_in[58] la_data_in[59] la_data_in[5]
+ la_data_in[60] la_data_in[61] la_data_in[62] la_data_in[63] la_data_in[64] la_data_in[65]
+ la_data_in[66] la_data_in[67] la_data_in[68] la_data_in[69] la_data_in[6] la_data_in[70]
+ la_data_in[71] la_data_in[72] la_data_in[73] la_data_in[74] la_data_in[75] la_data_in[76]
+ la_data_in[77] la_data_in[78] la_data_in[79] la_data_in[7] la_data_in[80] la_data_in[81]
+ la_data_in[82] la_data_in[83] la_data_in[84] la_data_in[85] la_data_in[86] la_data_in[87]
+ la_data_in[88] la_data_in[89] la_data_in[8] la_data_in[90] la_data_in[91] la_data_in[92]
+ la_data_in[93] la_data_in[94] la_data_in[95] la_data_in[96] la_data_in[97] la_data_in[98]
+ la_data_in[99] la_data_in[9] la_data_out[0] la_data_out[100] la_data_out[101] la_data_out[102]
+ la_data_out[103] la_data_out[104] la_data_out[105] la_data_out[106] la_data_out[107]
+ la_data_out[108] la_data_out[109] la_data_out[10] la_data_out[110] la_data_out[111]
+ la_data_out[112] la_data_out[113] la_data_out[114] la_data_out[115] la_data_out[116]
+ la_data_out[117] la_data_out[118] la_data_out[119] la_data_out[11] la_data_out[120]
+ la_data_out[121] la_data_out[122] la_data_out[123] la_data_out[124] la_data_out[125]
+ la_data_out[126] la_data_out[127] la_data_out[12] la_data_out[13] la_data_out[14]
+ la_data_out[15] la_data_out[16] la_data_out[17] la_data_out[18] la_data_out[19]
+ la_data_out[1] la_data_out[20] la_data_out[21] la_data_out[22] la_data_out[23] la_data_out[24]
+ la_data_out[25] la_data_out[26] la_data_out[27] la_data_out[28] la_data_out[29]
+ la_data_out[2] la_data_out[30] la_data_out[31] la_data_out[32] la_data_out[33] la_data_out[34]
+ la_data_out[35] la_data_out[36] la_data_out[37] la_data_out[38] la_data_out[39]
+ la_data_out[3] la_data_out[40] la_data_out[41] la_data_out[42] la_data_out[43] la_data_out[44]
+ la_data_out[45] la_data_out[46] la_data_out[47] la_data_out[48] la_data_out[49]
+ la_data_out[4] la_data_out[50] la_data_out[51] la_data_out[52] la_data_out[53] la_data_out[54]
+ la_data_out[55] la_data_out[56] la_data_out[57] la_data_out[58] la_data_out[59]
+ la_data_out[5] la_data_out[60] la_data_out[61] la_data_out[62] la_data_out[63] la_data_out[64]
+ la_data_out[65] la_data_out[66] la_data_out[67] la_data_out[68] la_data_out[69]
+ la_data_out[6] la_data_out[70] la_data_out[71] la_data_out[72] la_data_out[73] la_data_out[74]
+ la_data_out[75] la_data_out[76] la_data_out[77] la_data_out[78] la_data_out[79]
+ la_data_out[7] la_data_out[80] la_data_out[81] la_data_out[82] la_data_out[83] la_data_out[84]
+ la_data_out[85] la_data_out[86] la_data_out[87] la_data_out[88] la_data_out[89]
+ la_data_out[8] la_data_out[90] la_data_out[91] la_data_out[92] la_data_out[93] la_data_out[94]
+ la_data_out[95] la_data_out[96] la_data_out[97] la_data_out[98] la_data_out[99]
+ la_data_out[9] la_oenb[0] la_oenb[100] la_oenb[101] la_oenb[102] la_oenb[103] la_oenb[104]
+ la_oenb[105] la_oenb[106] la_oenb[107] la_oenb[108] la_oenb[109] la_oenb[10] la_oenb[110]
+ la_oenb[111] la_oenb[112] la_oenb[113] la_oenb[114] la_oenb[115] la_oenb[116] la_oenb[117]
+ la_oenb[118] la_oenb[119] la_oenb[11] la_oenb[120] la_oenb[121] la_oenb[122] la_oenb[123]
+ la_oenb[124] la_oenb[125] la_oenb[126] la_oenb[127] la_oenb[12] la_oenb[13] la_oenb[14]
+ la_oenb[15] la_oenb[16] la_oenb[17] la_oenb[18] la_oenb[19] la_oenb[1] la_oenb[20]
+ la_oenb[21] la_oenb[22] la_oenb[23] la_oenb[24] la_oenb[25] la_oenb[26] la_oenb[27]
+ la_oenb[28] la_oenb[29] la_oenb[2] la_oenb[30] la_oenb[31] la_oenb[32] la_oenb[33]
+ la_oenb[34] la_oenb[35] la_oenb[36] la_oenb[37] la_oenb[38] la_oenb[39] la_oenb[3]
+ la_oenb[40] la_oenb[41] la_oenb[42] la_oenb[43] la_oenb[44] la_oenb[45] la_oenb[46]
+ la_oenb[47] la_oenb[48] la_oenb[49] la_oenb[4] la_oenb[50] la_oenb[51] la_oenb[52]
+ la_oenb[53] la_oenb[54] la_oenb[55] la_oenb[56] la_oenb[57] la_oenb[58] la_oenb[59]
+ la_oenb[5] la_oenb[60] la_oenb[61] la_oenb[62] la_oenb[63] la_oenb[64] la_oenb[65]
+ la_oenb[66] la_oenb[67] la_oenb[68] la_oenb[69] la_oenb[6] la_oenb[70] la_oenb[71]
+ la_oenb[72] la_oenb[73] la_oenb[74] la_oenb[75] la_oenb[76] la_oenb[77] la_oenb[78]
+ la_oenb[79] la_oenb[7] la_oenb[80] la_oenb[81] la_oenb[82] la_oenb[83] la_oenb[84]
+ la_oenb[85] la_oenb[86] la_oenb[87] la_oenb[88] la_oenb[89] la_oenb[8] la_oenb[90]